Circuit: * C:\Users\jtsang451\Documents\TeamPhantom\PowerDistribution\HV_Board_Rev3\HV_Board_DC_Converter\LTSpice_Testing\lt3001\lt3001-12V-5V.asc

Direct Newton iteration failed to find .op point.  (Use ".option noopiter" to skip.)
Starting Gmin stepping
Gmin = 10
Gmin = 1.07374
Gmin = 0.115292
Gmin = 0.0123794
Gmin = 0.00132923
Gmin = 0.000142725
Gmin = 1.5325e-005
Gmin = 1.6455e-006
Gmin = 1.76685e-007
Gmin = 1.89714e-008
Gmin = 2.03704e-009
Gmin = 2.18725e-010
Gmin = 2.34854e-011
Gmin = 2.52173e-012
Gmin = 2.70769e-013
Gmin = 0
Gmin stepping succeeded in finding the operating point.


Date: Mon Mar 21 11:52:17 2022
Total elapsed time: 128.708 seconds.

tnom = 27
temp = 27
method = modified trap
totiter = 7188347
traniter = 7187990
tranpoints = 2514200
accept = 1840381
rejected = 673819
matrix size = 53
fillins = 7
solver = Normal
Thread vector: 31.3/12.6[2] 8.4/5.0[2] 1.9/3.5[1] 0.3/2.0[1]  2592/500
Matrix Compiler1: 2.16 KB object code size  1.5/0.4/[0.2]
Matrix Compiler2: off  [0.5]/2.2/0.5

