Circuit: * C:\Users\jtsang451\Documents\TeamPhantom\PowerDistribution\HV_Board_Rev3\HV_Board_DC_Converter\LTSpice_Testing\lt3001\lt3001-12V-5V.asc

Direct Newton iteration failed to find .op point.  (Use ".option noopiter" to skip.)
Starting Gmin stepping
Gmin = 10
Gmin = 1.07374
Gmin = 0.115292
Gmin = 0.0123794
Gmin = 0.00132923
Gmin = 0.000142725
Gmin = 1.5325e-005
Gmin = 1.6455e-006
Gmin = 1.76685e-007
Gmin = 1.89714e-008
Gmin = 2.03704e-009
Gmin = 2.18725e-010
Gmin = 2.34854e-011
Gmin = 2.52173e-012
Gmin = 2.70769e-013
Gmin = 0
Gmin stepping succeeded in finding the operating point.


Date: Mon Mar 28 11:27:13 2022
Total elapsed time: 61.493 seconds.

tnom = 27
temp = 27
method = modified trap
totiter = 3960084
traniter = 3959727
tranpoints = 1190086
accept = 881717
rejected = 308369
matrix size = 53
fillins = 7
solver = Normal
Matrix Compiler1: 2.16 KB object code size  0.8/0.4/[0.3]
Matrix Compiler2: 3.48 KB object code size  1.0/1.2/[0.6]

