Circuit: * E:\PowerDistribution\HV_Board_Rev3\HV_Board_DC_Converter\LTSpice_Testing\5V_Buck.asc

C8: Increased Cpar to 4.7e-013
C7: Increased Cpar to 3.3e-012
WARNING: Node NC_09 is floating.
WARNING: Node NC_10 is floating.
WARNING: Node NC_11 is floating.

WARNING: Less than two connections to node NC_08.  This node is used by D5.
WARNING: Less than two connections to node NC_09.  This node is used by D5.
WARNING: Less than two connections to node NC_10.  This node is used by C6.
WARNING: Less than two connections to node NC_11.  This node is used by C6.
Direct Newton iteration for .op point succeeded.
Ignoring empty pin current: Ix(endoscreset:in)
Ignoring empty pin current: Ix(endoscreset:out)
Ignoring empty pin current: Ix(endleb:in)
Ignoring empty pin current: Ix(endleb:out)
Ignoring empty pin current: Ix(dprimeest:in)
Ignoring empty pin current: Ix(dprimeest:out)
Ignoring empty pin current: Ix(enddcmblank:in)
Ignoring empty pin current: Ix(enddcmblank:out)
Ignoring empty pin current: Ix(endsample:in)
Ignoring empty pin current: Ix(endsample:out)
Ignoring empty pin current: Ix(backuposc:in)
Ignoring empty pin current: Ix(backuposc:out)
Ignoring empty pin current: Ix(endresetss:in)
Ignoring empty pin current: Ix(endresetss:out)
Ignoring empty pin current: Ix(retry:in)
Ignoring empty pin current: Ix(retry:out)
Ignoring empty pin current: Ix(sleep:in)
Ignoring empty pin current: Ix(sleep:out)
Ignoring empty pin current: Ix(u1:2)
Ignoring empty pin current: Ix(u1:3)
Ignoring empty pin current: Ix(u1:4)
Ignoring empty pin current: Ix(u1:5)
Ignoring empty pin current: Ix(u1:6)
Ignoring empty pin current: Ix(u1:7)
Ignoring empty pin current: Ix(endoscreset:in)
Ignoring empty pin current: Ix(endoscreset:out)
Ignoring empty pin current: Ix(endleb:in)
Ignoring empty pin current: Ix(endleb:out)
Ignoring empty pin current: Ix(dprimeest:in)
Ignoring empty pin current: Ix(dprimeest:out)
Ignoring empty pin current: Ix(enddcmblank:in)
Ignoring empty pin current: Ix(enddcmblank:out)
Ignoring empty pin current: Ix(endsample:in)
Ignoring empty pin current: Ix(endsample:out)
Ignoring empty pin current: Ix(backuposc:in)
Ignoring empty pin current: Ix(backuposc:out)
Ignoring empty pin current: Ix(endresetss:in)
Ignoring empty pin current: Ix(endresetss:out)
Ignoring empty pin current: Ix(retry:in)
Ignoring empty pin current: Ix(retry:out)
Ignoring empty pin current: Ix(sleep:in)
Ignoring empty pin current: Ix(sleep:out)
Ignoring empty pin current: Ix(u1:2)
Ignoring empty pin current: Ix(u1:3)
Ignoring empty pin current: Ix(u1:4)
Ignoring empty pin current: Ix(u1:5)
Ignoring empty pin current: Ix(u1:6)
Ignoring empty pin current: Ix(u1:7)

Date: Sat Sep 11 21:39:01 2021
Total elapsed time: 25.879 seconds.

tnom = 27
temp = 27
method = modified trap
totiter = 2154596
traniter = 2154564
tranpoints = 580850
accept = 432510
rejected = 148340
matrix size = 57
fillins = 15
solver = Normal
Thread vector: 7.3/5.4[3] 3.4/2.5[3] 1.4/1.3[1] 0.2/0.9[1]  2592/500
Matrix Compiler1: 3.95 KB object code size  1.1/0.7/[0.4]
Matrix Compiler2: 4.53 KB object code size  0.5/0.8/[0.3]

